PCB_main
*SPICE Netlist generated by Advanced Sim server on 5/21/2018 17:02:23

*Schematic Netlist:

.SAVE 0


*Selected Circuit Analyses:
.TRAN 2E-8 5E-6 0 2E-8
.OP

.END
