WordClock_PrJ
*SPICE Netlist generated by Advanced Sim server on 4/26/2018 23:03:33

*Schematic Netlist:

.SAVE 0


*Selected Circuit Analyses:
.TRAN 2E-8 5E-6 0 2E-8
.OP

.END
